---- qbsp / ericw-tools 2.0.0-alpha8-25-gd532580a ----

--- Options Summary ---
    "nocolor" was set to "1" (from command line)

Input file: C:\Users\Logan\OneDrive\Desktop\quake-leveldesign-starterkit-20240909-windows\quake\forsaken-crucible-compile.map
Output file: C:\Users\Logan\OneDrive\Desktop\quake-leveldesign-starterkit-20240909-windows\quake\forsaken-crucible.bsp

INFO: using built-in palette.
     33 entities
      4 unique textures
    759 texinfos
    550 unique planes

INFO: world extents calculated to 50152 units
      257 brushes
    1,542 sides
      132 side bevels

            0 texture frames added
WARNING: unable to find texture skip
Processing hull 0...
    257 SOLID brushes
    257 brushes total
    1,542 visible sides
INFO: calculating BSP for 257 brushes with 1542 sides
      257 brushes
    1,542 visible faces
    7,424 nodes
    4,359 expensive split nodes
    3,065 mid-split nodes
    7,425 leaves
    3,292 EMPTY leafs
    4,133 SOLID leafs
    7,425 leafs total
    26 max tree height
    17 avg tree height
    105 tiny portals
    26,273 tree portals
WARNING: Reached occupant "info_player_deathmatch" at (-672 736 -88), no filling performed.
Leak file written to forsaken-crucible.pts
            7 portals written to forsaken-crucible.leak.prt
    105 tiny portals
    26,273 tree portals
    7,817 sides visible
    7,817 makefaces
    1,172 merged
      792 subdivided
    940 nodes pruned
    3,292 EMPTY leafs
    3,193 SOLID leafs
    6,485 leafs total
    25 max tree height
    16 avg tree height
     3,530 edges added by tjunctions
     7,368 faces optimized through MWT
    18,295 triangles computed from MWT
       848 faces created via optimization of MWT triangles
    17,859 edges
     8,285 faces
Processing hull 1...
Processing hull 2...
WARNING: worldspawn at 0 0 0 has long value for key wad (length 128 >= 127)
Writing forsaken-crucible.bsp as Quake BSP bsp29
Wrote forsaken-crucible.bsp

count   lump name    byte size 
      1 models               64
    419 planes             8380
   8766 vertexes         105192
   6484 nodes            155616
    536 texinfos          21440
   8285 faces            165700
   1816 clipnodes         14528
   3293 leafs             92204
  10732 marksurfaces      21464
  17860 edges             71440
  34934 surfedges        139736
      4 textures          65420
        lightdata             0
        visdata               0
        entdata            2084

0.567s seconds elapsed


