---- qbsp / ericw-tools 2.0.0-alpha8-25-gd532580a ----

--- Options Summary ---
    "nocolor" was set to "1" (from command line)

Input file: C:\Users\Logan\OneDrive\Desktop\quake-leveldesign-starterkit-20240909-windows\quake\forsaken-crucible-compile.map
Output file: C:\Users\Logan\OneDrive\Desktop\quake-leveldesign-starterkit-20240909-windows\quake\forsaken-crucible.bsp

INFO: using built-in palette.
    159 entities
      8 unique textures
    583 texinfos
    576 unique planes

INFO: world extents calculated to 50248 units
      275 brushes
    1,650 sides
      124 side bevels

            0 texture frames added
WARNING: unable to find texture skip
Processing hull 0...
    275 SOLID brushes
    275 brushes total
    1,650 visible sides
INFO: calculating BSP for 275 brushes with 1650 sides
      275 brushes
    1,650 visible faces
    8,611 nodes
    5,065 expensive split nodes
    3,546 mid-split nodes
    8,612 leaves
    3,876 EMPTY leafs
    4,736 SOLID leafs
    8,612 leafs total
    26 max tree height
    17 avg tree height
    121 tiny portals
    30,237 tree portals
WARNING: Reached occupant "light" at (-620 470 -96), no filling performed.
Leak file written to forsaken-crucible.pts
            5 portals written to forsaken-crucible.leak.prt
    121 tiny portals
    30,237 tree portals
    9,047 sides visible
    9,047 makefaces
    1,288 merged
      870 subdivided
    1,032 nodes pruned
    3,876 EMPTY leafs
    3,704 SOLID leafs
    7,580 leafs total
    25 max tree height
    17 avg tree height
     3,782 edges added by tjunctions
     8,559 faces optimized through MWT
    20,938 triangles computed from MWT
       938 faces created via optimization of MWT triangles
    20,525 edges
     9,567 faces
Processing hull 1...
Processing hull 2...
WARNING: worldspawn at 0 0 0 has long value for key wad (length 249 >= 127)
Writing forsaken-crucible.bsp as Quake BSP bsp29
Wrote forsaken-crucible.bsp

count   lump name    byte size 
      1 models               64
    430 planes             8600
  10044 vertexes         120528
   7579 nodes            181896
    420 texinfos          16800
   9567 faces            191340
   2015 clipnodes         16120
   3877 leafs            108556
  12441 marksurfaces      24882
  20526 edges             82104
  40142 surfedges        160568
      8 textures          71036
        lightdata             0
        visdata               0
        entdata           10190

1.866s seconds elapsed


