---- qbsp / ericw-tools 2.0.0-alpha8-25-gd532580a ----

--- Options Summary ---
    "nocolor" was set to "1" (from command line)

Input file: C:\Users\Logan\OneDrive\Desktop\quake-leveldesign-starterkit-20240909-windows\quake\forsaken-crucible-compile.map
Output file: C:\Users\Logan\OneDrive\Desktop\quake-leveldesign-starterkit-20240909-windows\quake\forsaken-crucible.bsp

INFO: using built-in palette.
    178 entities
     24 unique textures
    816 texinfos
    846 unique planes

INFO: world extents calculated to 50248 units
      415 brushes
    2,490 sides
      198 side bevels

            0 texture frames added
WARNING: unable to find texture skip
Processing hull 0...
    406 SOLID brushes
      9 LAVA | Q2_UNUSED_8 brushes
    415 brushes total
    2,490 visible sides
INFO: calculating BSP for 415 brushes with 2490 sides
      415 brushes
    2,490 visible faces
    17,250 nodes
    10,754 expensive split nodes
     6,496 mid-split nodes
    17,251 leaves
       132 LAVA | Q2_UNUSED_8 leafs
     7,498 EMPTY leafs
     9,621 SOLID leafs
    17,251 leafs total
    29 max tree height
    18 avg tree height
    264 tiny portals
    59,394 tree portals
WARNING: Reached occupant "light" at (-620 470 -96), no filling performed.
Leak file written to forsaken-crucible.pts
            5 portals written to forsaken-crucible.leak.prt
    264 tiny portals
    59,394 tree portals
    17,729 sides visible
    17,441 makefaces
     2,079 merged
     1,001 subdivided
    1,837 nodes pruned
       132 LAVA | Q2_UNUSED_8 leafs
     7,498 EMPTY leafs
     7,784 SOLID leafs
    15,414 leafs total
    29 max tree height
    18 avg tree height
     5,444 edges added by tjunctions
    16,276 faces optimized through MWT
    38,037 triangles computed from MWT
     1,185 faces created via optimization of MWT triangles
    37,312 edges
    17,548 faces
Processing hull 1...
Processing hull 2...
WARNING: worldspawn at 0 0 0 has long value for key wad (length 382 >= 127)
Writing forsaken-crucible.bsp as Quake BSP bsp29
Wrote forsaken-crucible.bsp

count   lump name    byte size 
      1 models               64
    617 planes            12340
  18384 vertexes         220608
  15413 nodes            369912
    591 texinfos          23640
  17548 faces            350960
   3238 clipnodes         25904
   7631 leafs            213668
  21961 marksurfaces      43922
  37313 edges            149252
  73220 surfedges        292880
     24 textures         180540
        lightdata             0
        visdata               0
        entdata           10105

2.900s seconds elapsed


